<?xml version="1.0" encoding="UTF-8"?>

<!-- generated on Sun May  4 17:23:15 2014 by SUMO sumo Version 0.18.0
<?xml version="1.0" encoding="UTF-8"?>

<configuration xmlns:xsi="http://www.w3.org/2001/XMLSchema-instance" xsi:noNamespaceSchemaLocation="http://sumo.sf.net/xsd/sumoConfiguration.xsd">

    <input>
        <net-file value="scratch/cross.net.xml"/>
        <route-files value="scratch/cross.rou.xml"/>
        <additional-files value="scratch/cross.det.xml"/>
    </input>

    <output>
        <save-state.prefix value="scratch/state"/>
    </output>

    <time>
        <begin value="0"/>
    </time>

    <report>
        <verbose value="true"/>
        <no-step-log value="true"/>
    </report>

    <traci_server>
        <remote-port value="8813"/>
    </traci_server>

</configuration>
